Version 4
SHEET 1 1268 968
WIRE -272 -128 -720 -128
WIRE 192 -128 -272 -128
WIRE 192 -96 192 -128
WIRE -720 -64 -720 -128
WIRE -416 -16 -432 -16
WIRE -320 -16 -336 -16
WIRE -240 -16 -320 -16
WIRE -144 -16 -160 -16
WIRE -432 0 -432 -16
WIRE 192 16 192 -16
WIRE -272 48 -272 -128
WIRE -320 64 -320 -16
WIRE -304 64 -320 64
WIRE -144 80 -144 -16
WIRE -144 80 -240 80
WIRE -592 96 -656 96
WIRE -480 96 -512 96
WIRE -448 96 -480 96
WIRE -336 96 -368 96
WIRE -304 96 -336 96
WIRE -144 96 -144 80
WIRE 144 96 -144 96
WIRE -480 128 -480 96
WIRE -336 128 -336 96
WIRE -656 144 -656 96
WIRE -720 240 -720 16
WIRE -656 240 -656 224
WIRE -656 240 -720 240
WIRE -480 240 -480 192
WIRE -480 240 -656 240
WIRE -336 240 -336 192
WIRE -336 240 -480 240
WIRE -272 240 -272 112
WIRE -272 240 -336 240
WIRE 128 240 -272 240
WIRE 192 240 192 112
WIRE 192 240 128 240
WIRE 128 256 128 240
FLAG 128 256 0
FLAG -432 0 0
SYMBOL voltage -720 -80 R0
WINDOW 123 0 0 Left 0
WINDOW 39 0 0 Left 0
SYMATTR InstName V1
SYMATTR Value 9
SYMBOL res 176 -112 R0
SYMATTR InstName R1
SYMATTR Value 1k
SYMBOL nmos 144 16 R0
SYMATTR InstName M1
SYMATTR Value IRF540n
SYMATTR Prefix X
SYMBOL voltage -656 128 R0
WINDOW 123 0 0 Left 0
WINDOW 39 0 0 Left 0
SYMATTR InstName V2
SYMATTR Value PULSE(0 3.3 0 10u 10u 500u 1m)
SYMBOL OpAmps\\opamp2 -272 16 R0
SYMATTR InstName U1
SYMATTR Value lm324
SYMBOL res -496 80 R90
WINDOW 0 0 56 VBottom 2
WINDOW 3 32 56 VTop 2
SYMATTR InstName R2
SYMATTR Value 1k
SYMBOL res -352 80 R90
WINDOW 0 0 56 VBottom 2
WINDOW 3 32 56 VTop 2
SYMATTR InstName R3
SYMATTR Value 1k
SYMBOL cap -496 128 R0
SYMATTR InstName C1
SYMATTR Value 10µ
SYMBOL cap -352 128 R0
SYMATTR InstName C2
SYMATTR Value 10µ
SYMBOL res -320 -32 R90
WINDOW 0 0 56 VBottom 2
WINDOW 3 32 56 VTop 2
SYMATTR InstName R4
SYMATTR Value 1k
SYMBOL res -144 -32 R90
WINDOW 0 0 56 VBottom 2
WINDOW 3 32 56 VTop 2
SYMATTR InstName R5
SYMATTR Value 2k
TEXT -1208 64 Left 2 !.tran 100m
TEXT -1208 16 Left 2 !.include ../../Comp/lm324.lib
TEXT -1208 40 Left 2 !.include ../../Comp/irf540n.lib
